12

C          1.02821        0.07372        0.06413
C          2.52037        0.08247        0.05499
C          3.24247        0.86437       -0.76189
C          4.73525        0.88299       -0.78134
H          0.66469       -0.64023        0.81002
H          0.63492       -0.22994       -0.91074
H          0.63492        1.06094        0.32486
H          3.02224       -0.58465        0.75196
H          2.73673        1.53052       -1.45783
H          5.16362        0.18647       -0.05366
H          5.09908        1.88783       -0.54703
H          5.09908        0.60496       -1.77497
0, 67108864, 0, 0, 0, 4194304, 0, 0, 0, 0, 0, 0, 0, 0, 0, 0, 0, 0, 0, 0, 1073741824, 0, 0, 0, 1024, 0, 0, 0, 0, 0, 0, 0
CC=CC	
oioioioioioioioioioioioioioioioioioi